tests/unit/opflow/constraint_jacobian/inequality/CICJ_unittestx600.m
function mpc = CICJ_unittestx600
mpc.version = '2';
mpc.baseMVA =  100.00;

%% bus data
mpc.bus = [
1 1  0.00 0.00 0.00  0.00 1 2.0000000  0.000000 138.00 1 1.100 0.900
2 1  0.00 0.00 0.25 -0.05 1 2.0000000  0.000000 138.00 1 1.100 0.900
3 3  0.00 0.00 0.00  0.00 1 0.5000000 30.000000  13.80 1 1.100 0.900
4 1 -3.40 8.80 0.00  0.00 1 2.0000000  0.000000 138.00 1 1.100 0.900
5 1  0.00 0.00 0.00  0.00 1 2.0000000  0.000000 138.00 1 1.100 0.900
6 1  0.00 0.00 0.25 -0.05 1 2.0000000  0.000000 138.00 1 1.100 0.900
7 2  0.00 0.00 0.00  0.00 1 0.5000000 30.000000  13.80 1 1.100 0.900
8 1 -3.40 8.80 0.00  0.00 1 2.0000000  0.000000 138.00 1 1.100 0.900
9 1  0.00 0.00 0.00  0.00 1 2.0000000  0.000000 138.00 1 1.100 0.900
10 1  0.00 0.00 0.25 -0.05 1 2.0000000  0.000000 138.00 1 1.100 0.900
11 2  0.00 0.00 0.00  0.00 1 0.5000000 30.000000  13.80 1 1.100 0.900
12 1 -3.40 8.80 0.00  0.00 1 2.0000000  0.000000 138.00 1 1.100 0.900
13 1  0.00 0.00 0.00  0.00 1 2.0000000  0.000000 138.00 1 1.100 0.900
14 1  0.00 0.00 0.25 -0.05 1 2.0000000  0.000000 138.00 1 1.100 0.900
15 2  0.00 0.00 0.00  0.00 1 0.5000000 30.000000  13.80 1 1.100 0.900
16 1 -3.40 8.80 0.00  0.00 1 2.0000000  0.000000 138.00 1 1.100 0.900
17 1  0.00 0.00 0.00  0.00 1 2.0000000  0.000000 138.00 1 1.100 0.900
18 1  0.00 0.00 0.25 -0.05 1 2.0000000  0.000000 138.00 1 1.100 0.900
19 2  0.00 0.00 0.00  0.00 1 0.5000000 30.000000  13.80 1 1.100 0.900
20 1 -3.40 8.80 0.00  0.00 1 2.0000000  0.000000 138.00 1 1.100 0.900
21 1  0.00 0.00 0.00  0.00 1 2.0000000  0.000000 138.00 1 1.100 0.900
22 1  0.00 0.00 0.25 -0.05 1 2.0000000  0.000000 138.00 1 1.100 0.900
23 2  0.00 0.00 0.00  0.00 1 0.5000000 30.000000  13.80 1 1.100 0.900
24 1 -3.40 8.80 0.00  0.00 1 2.0000000  0.000000 138.00 1 1.100 0.900
25 1  0.00 0.00 0.00  0.00 1 2.0000000  0.000000 138.00 1 1.100 0.900
26 1  0.00 0.00 0.25 -0.05 1 2.0000000  0.000000 138.00 1 1.100 0.900
27 2  0.00 0.00 0.00  0.00 1 0.5000000 30.000000  13.80 1 1.100 0.900
28 1 -3.40 8.80 0.00  0.00 1 2.0000000  0.000000 138.00 1 1.100 0.900
29 1  0.00 0.00 0.00  0.00 1 2.0000000  0.000000 138.00 1 1.100 0.900
30 1  0.00 0.00 0.25 -0.05 1 2.0000000  0.000000 138.00 1 1.100 0.900
31 2  0.00 0.00 0.00  0.00 1 0.5000000 30.000000  13.80 1 1.100 0.900
32 1 -3.40 8.80 0.00  0.00 1 2.0000000  0.000000 138.00 1 1.100 0.900
33 1  0.00 0.00 0.00  0.00 1 2.0000000  0.000000 138.00 1 1.100 0.900
34 1  0.00 0.00 0.25 -0.05 1 2.0000000  0.000000 138.00 1 1.100 0.900
35 2  0.00 0.00 0.00  0.00 1 0.5000000 30.000000  13.80 1 1.100 0.900
36 1 -3.40 8.80 0.00  0.00 1 2.0000000  0.000000 138.00 1 1.100 0.900
37 1  0.00 0.00 0.00  0.00 1 2.0000000  0.000000 138.00 1 1.100 0.900
38 1  0.00 0.00 0.25 -0.05 1 2.0000000  0.000000 138.00 1 1.100 0.900
39 2  0.00 0.00 0.00  0.00 1 0.5000000 30.000000  13.80 1 1.100 0.900
40 1 -3.40 8.80 0.00  0.00 1 2.0000000  0.000000 138.00 1 1.100 0.900
41 1  0.00 0.00 0.00  0.00 1 2.0000000  0.000000 138.00 1 1.100 0.900
42 1  0.00 0.00 0.25 -0.05 1 2.0000000  0.000000 138.00 1 1.100 0.900
43 2  0.00 0.00 0.00  0.00 1 0.5000000 30.000000  13.80 1 1.100 0.900
44 1 -3.40 8.80 0.00  0.00 1 2.0000000  0.000000 138.00 1 1.100 0.900
45 1  0.00 0.00 0.00  0.00 1 2.0000000  0.000000 138.00 1 1.100 0.900
46 1  0.00 0.00 0.25 -0.05 1 2.0000000  0.000000 138.00 1 1.100 0.900
47 2  0.00 0.00 0.00  0.00 1 0.5000000 30.000000  13.80 1 1.100 0.900
48 1 -3.40 8.80 0.00  0.00 1 2.0000000  0.000000 138.00 1 1.100 0.900
49 1  0.00 0.00 0.00  0.00 1 2.0000000  0.000000 138.00 1 1.100 0.900
50 1  0.00 0.00 0.25 -0.05 1 2.0000000  0.000000 138.00 1 1.100 0.900
51 2  0.00 0.00 0.00  0.00 1 0.5000000 30.000000  13.80 1 1.100 0.900
52 1 -3.40 8.80 0.00  0.00 1 2.0000000  0.000000 138.00 1 1.100 0.900
53 1  0.00 0.00 0.00  0.00 1 2.0000000  0.000000 138.00 1 1.100 0.900
54 1  0.00 0.00 0.25 -0.05 1 2.0000000  0.000000 138.00 1 1.100 0.900
55 2  0.00 0.00 0.00  0.00 1 0.5000000 30.000000  13.80 1 1.100 0.900
56 1 -3.40 8.80 0.00  0.00 1 2.0000000  0.000000 138.00 1 1.100 0.900
57 1  0.00 0.00 0.00  0.00 1 2.0000000  0.000000 138.00 1 1.100 0.900
58 1  0.00 0.00 0.25 -0.05 1 2.0000000  0.000000 138.00 1 1.100 0.900
59 2  0.00 0.00 0.00  0.00 1 0.5000000 30.000000  13.80 1 1.100 0.900
60 1 -3.40 8.80 0.00  0.00 1 2.0000000  0.000000 138.00 1 1.100 0.900
61 1  0.00 0.00 0.00  0.00 1 2.0000000  0.000000 138.00 1 1.100 0.900
62 1  0.00 0.00 0.25 -0.05 1 2.0000000  0.000000 138.00 1 1.100 0.900
63 2  0.00 0.00 0.00  0.00 1 0.5000000 30.000000  13.80 1 1.100 0.900
64 1 -3.40 8.80 0.00  0.00 1 2.0000000  0.000000 138.00 1 1.100 0.900
65 1  0.00 0.00 0.00  0.00 1 2.0000000  0.000000 138.00 1 1.100 0.900
66 1  0.00 0.00 0.25 -0.05 1 2.0000000  0.000000 138.00 1 1.100 0.900
67 2  0.00 0.00 0.00  0.00 1 0.5000000 30.000000  13.80 1 1.100 0.900
68 1 -3.40 8.80 0.00  0.00 1 2.0000000  0.000000 138.00 1 1.100 0.900
69 1  0.00 0.00 0.00  0.00 1 2.0000000  0.000000 138.00 1 1.100 0.900
70 1  0.00 0.00 0.25 -0.05 1 2.0000000  0.000000 138.00 1 1.100 0.900
71 2  0.00 0.00 0.00  0.00 1 0.5000000 30.000000  13.80 1 1.100 0.900
72 1 -3.40 8.80 0.00  0.00 1 2.0000000  0.000000 138.00 1 1.100 0.900
73 1  0.00 0.00 0.00  0.00 1 2.0000000  0.000000 138.00 1 1.100 0.900
74 1  0.00 0.00 0.25 -0.05 1 2.0000000  0.000000 138.00 1 1.100 0.900
75 2  0.00 0.00 0.00  0.00 1 0.5000000 30.000000  13.80 1 1.100 0.900
76 1 -3.40 8.80 0.00  0.00 1 2.0000000  0.000000 138.00 1 1.100 0.900
77 1  0.00 0.00 0.00  0.00 1 2.0000000  0.000000 138.00 1 1.100 0.900
78 1  0.00 0.00 0.25 -0.05 1 2.0000000  0.000000 138.00 1 1.100 0.900
79 2  0.00 0.00 0.00  0.00 1 0.5000000 30.000000  13.80 1 1.100 0.900
80 1 -3.40 8.80 0.00  0.00 1 2.0000000  0.000000 138.00 1 1.100 0.900
81 1  0.00 0.00 0.00  0.00 1 2.0000000  0.000000 138.00 1 1.100 0.900
82 1  0.00 0.00 0.25 -0.05 1 2.0000000  0.000000 138.00 1 1.100 0.900
83 2  0.00 0.00 0.00  0.00 1 0.5000000 30.000000  13.80 1 1.100 0.900
84 1 -3.40 8.80 0.00  0.00 1 2.0000000  0.000000 138.00 1 1.100 0.900
85 1  0.00 0.00 0.00  0.00 1 2.0000000  0.000000 138.00 1 1.100 0.900
86 1  0.00 0.00 0.25 -0.05 1 2.0000000  0.000000 138.00 1 1.100 0.900
87 2  0.00 0.00 0.00  0.00 1 0.5000000 30.000000  13.80 1 1.100 0.900
88 1 -3.40 8.80 0.00  0.00 1 2.0000000  0.000000 138.00 1 1.100 0.900
89 1  0.00 0.00 0.00  0.00 1 2.0000000  0.000000 138.00 1 1.100 0.900
90 1  0.00 0.00 0.25 -0.05 1 2.0000000  0.000000 138.00 1 1.100 0.900
91 2  0.00 0.00 0.00  0.00 1 0.5000000 30.000000  13.80 1 1.100 0.900
92 1 -3.40 8.80 0.00  0.00 1 2.0000000  0.000000 138.00 1 1.100 0.900
93 1  0.00 0.00 0.00  0.00 1 2.0000000  0.000000 138.00 1 1.100 0.900
94 1  0.00 0.00 0.25 -0.05 1 2.0000000  0.000000 138.00 1 1.100 0.900
95 2  0.00 0.00 0.00  0.00 1 0.5000000 30.000000  13.80 1 1.100 0.900
96 1 -3.40 8.80 0.00  0.00 1 2.0000000  0.000000 138.00 1 1.100 0.900
97 1  0.00 0.00 0.00  0.00 1 2.0000000  0.000000 138.00 1 1.100 0.900
98 1  0.00 0.00 0.25 -0.05 1 2.0000000  0.000000 138.00 1 1.100 0.900
99 2  0.00 0.00 0.00  0.00 1 0.5000000 30.000000  13.80 1 1.100 0.900
100 1 -3.40 8.80 0.00  0.00 1 2.0000000  0.000000 138.00 1 1.100 0.900
101 1  0.00 0.00 0.00  0.00 1 2.0000000  0.000000 138.00 1 1.100 0.900
102 1  0.00 0.00 0.25 -0.05 1 2.0000000  0.000000 138.00 1 1.100 0.900
103 2  0.00 0.00 0.00  0.00 1 0.5000000 30.000000  13.80 1 1.100 0.900
104 1 -3.40 8.80 0.00  0.00 1 2.0000000  0.000000 138.00 1 1.100 0.900
105 1  0.00 0.00 0.00  0.00 1 2.0000000  0.000000 138.00 1 1.100 0.900
106 1  0.00 0.00 0.25 -0.05 1 2.0000000  0.000000 138.00 1 1.100 0.900
107 2  0.00 0.00 0.00  0.00 1 0.5000000 30.000000  13.80 1 1.100 0.900
108 1 -3.40 8.80 0.00  0.00 1 2.0000000  0.000000 138.00 1 1.100 0.900
109 1  0.00 0.00 0.00  0.00 1 2.0000000  0.000000 138.00 1 1.100 0.900
110 1  0.00 0.00 0.25 -0.05 1 2.0000000  0.000000 138.00 1 1.100 0.900
111 2  0.00 0.00 0.00  0.00 1 0.5000000 30.000000  13.80 1 1.100 0.900
112 1 -3.40 8.80 0.00  0.00 1 2.0000000  0.000000 138.00 1 1.100 0.900
113 1  0.00 0.00 0.00  0.00 1 2.0000000  0.000000 138.00 1 1.100 0.900
114 1  0.00 0.00 0.25 -0.05 1 2.0000000  0.000000 138.00 1 1.100 0.900
115 2  0.00 0.00 0.00  0.00 1 0.5000000 30.000000  13.80 1 1.100 0.900
116 1 -3.40 8.80 0.00  0.00 1 2.0000000  0.000000 138.00 1 1.100 0.900
117 1  0.00 0.00 0.00  0.00 1 2.0000000  0.000000 138.00 1 1.100 0.900
118 1  0.00 0.00 0.25 -0.05 1 2.0000000  0.000000 138.00 1 1.100 0.900
119 2  0.00 0.00 0.00  0.00 1 0.5000000 30.000000  13.80 1 1.100 0.900
120 1 -3.40 8.80 0.00  0.00 1 2.0000000  0.000000 138.00 1 1.100 0.900
121 1  0.00 0.00 0.00  0.00 1 2.0000000  0.000000 138.00 1 1.100 0.900
122 1  0.00 0.00 0.25 -0.05 1 2.0000000  0.000000 138.00 1 1.100 0.900
123 2  0.00 0.00 0.00  0.00 1 0.5000000 30.000000  13.80 1 1.100 0.900
124 1 -3.40 8.80 0.00  0.00 1 2.0000000  0.000000 138.00 1 1.100 0.900
125 1  0.00 0.00 0.00  0.00 1 2.0000000  0.000000 138.00 1 1.100 0.900
126 1  0.00 0.00 0.25 -0.05 1 2.0000000  0.000000 138.00 1 1.100 0.900
127 2  0.00 0.00 0.00  0.00 1 0.5000000 30.000000  13.80 1 1.100 0.900
128 1 -3.40 8.80 0.00  0.00 1 2.0000000  0.000000 138.00 1 1.100 0.900
129 1  0.00 0.00 0.00  0.00 1 2.0000000  0.000000 138.00 1 1.100 0.900
130 1  0.00 0.00 0.25 -0.05 1 2.0000000  0.000000 138.00 1 1.100 0.900
131 2  0.00 0.00 0.00  0.00 1 0.5000000 30.000000  13.80 1 1.100 0.900
132 1 -3.40 8.80 0.00  0.00 1 2.0000000  0.000000 138.00 1 1.100 0.900
133 1  0.00 0.00 0.00  0.00 1 2.0000000  0.000000 138.00 1 1.100 0.900
134 1  0.00 0.00 0.25 -0.05 1 2.0000000  0.000000 138.00 1 1.100 0.900
135 2  0.00 0.00 0.00  0.00 1 0.5000000 30.000000  13.80 1 1.100 0.900
136 1 -3.40 8.80 0.00  0.00 1 2.0000000  0.000000 138.00 1 1.100 0.900
137 1  0.00 0.00 0.00  0.00 1 2.0000000  0.000000 138.00 1 1.100 0.900
138 1  0.00 0.00 0.25 -0.05 1 2.0000000  0.000000 138.00 1 1.100 0.900
139 2  0.00 0.00 0.00  0.00 1 0.5000000 30.000000  13.80 1 1.100 0.900
140 1 -3.40 8.80 0.00  0.00 1 2.0000000  0.000000 138.00 1 1.100 0.900
141 1  0.00 0.00 0.00  0.00 1 2.0000000  0.000000 138.00 1 1.100 0.900
142 1  0.00 0.00 0.25 -0.05 1 2.0000000  0.000000 138.00 1 1.100 0.900
143 2  0.00 0.00 0.00  0.00 1 0.5000000 30.000000  13.80 1 1.100 0.900
144 1 -3.40 8.80 0.00  0.00 1 2.0000000  0.000000 138.00 1 1.100 0.900
145 1  0.00 0.00 0.00  0.00 1 2.0000000  0.000000 138.00 1 1.100 0.900
146 1  0.00 0.00 0.25 -0.05 1 2.0000000  0.000000 138.00 1 1.100 0.900
147 2  0.00 0.00 0.00  0.00 1 0.5000000 30.000000  13.80 1 1.100 0.900
148 1 -3.40 8.80 0.00  0.00 1 2.0000000  0.000000 138.00 1 1.100 0.900
149 1  0.00 0.00 0.00  0.00 1 2.0000000  0.000000 138.00 1 1.100 0.900
150 1  0.00 0.00 0.25 -0.05 1 2.0000000  0.000000 138.00 1 1.100 0.900
151 2  0.00 0.00 0.00  0.00 1 0.5000000 30.000000  13.80 1 1.100 0.900
152 1 -3.40 8.80 0.00  0.00 1 2.0000000  0.000000 138.00 1 1.100 0.900
153 1  0.00 0.00 0.00  0.00 1 2.0000000  0.000000 138.00 1 1.100 0.900
154 1  0.00 0.00 0.25 -0.05 1 2.0000000  0.000000 138.00 1 1.100 0.900
155 2  0.00 0.00 0.00  0.00 1 0.5000000 30.000000  13.80 1 1.100 0.900
156 1 -3.40 8.80 0.00  0.00 1 2.0000000  0.000000 138.00 1 1.100 0.900
157 1  0.00 0.00 0.00  0.00 1 2.0000000  0.000000 138.00 1 1.100 0.900
158 1  0.00 0.00 0.25 -0.05 1 2.0000000  0.000000 138.00 1 1.100 0.900
159 2  0.00 0.00 0.00  0.00 1 0.5000000 30.000000  13.80 1 1.100 0.900
160 1 -3.40 8.80 0.00  0.00 1 2.0000000  0.000000 138.00 1 1.100 0.900
161 1  0.00 0.00 0.00  0.00 1 2.0000000  0.000000 138.00 1 1.100 0.900
162 1  0.00 0.00 0.25 -0.05 1 2.0000000  0.000000 138.00 1 1.100 0.900
163 2  0.00 0.00 0.00  0.00 1 0.5000000 30.000000  13.80 1 1.100 0.900
164 1 -3.40 8.80 0.00  0.00 1 2.0000000  0.000000 138.00 1 1.100 0.900
165 1  0.00 0.00 0.00  0.00 1 2.0000000  0.000000 138.00 1 1.100 0.900
166 1  0.00 0.00 0.25 -0.05 1 2.0000000  0.000000 138.00 1 1.100 0.900
167 2  0.00 0.00 0.00  0.00 1 0.5000000 30.000000  13.80 1 1.100 0.900
168 1 -3.40 8.80 0.00  0.00 1 2.0000000  0.000000 138.00 1 1.100 0.900
169 1  0.00 0.00 0.00  0.00 1 2.0000000  0.000000 138.00 1 1.100 0.900
170 1  0.00 0.00 0.25 -0.05 1 2.0000000  0.000000 138.00 1 1.100 0.900
171 2  0.00 0.00 0.00  0.00 1 0.5000000 30.000000  13.80 1 1.100 0.900
172 1 -3.40 8.80 0.00  0.00 1 2.0000000  0.000000 138.00 1 1.100 0.900
173 1  0.00 0.00 0.00  0.00 1 2.0000000  0.000000 138.00 1 1.100 0.900
174 1  0.00 0.00 0.25 -0.05 1 2.0000000  0.000000 138.00 1 1.100 0.900
175 2  0.00 0.00 0.00  0.00 1 0.5000000 30.000000  13.80 1 1.100 0.900
176 1 -3.40 8.80 0.00  0.00 1 2.0000000  0.000000 138.00 1 1.100 0.900
177 1  0.00 0.00 0.00  0.00 1 2.0000000  0.000000 138.00 1 1.100 0.900
178 1  0.00 0.00 0.25 -0.05 1 2.0000000  0.000000 138.00 1 1.100 0.900
179 2  0.00 0.00 0.00  0.00 1 0.5000000 30.000000  13.80 1 1.100 0.900
180 1 -3.40 8.80 0.00  0.00 1 2.0000000  0.000000 138.00 1 1.100 0.900
181 1  0.00 0.00 0.00  0.00 1 2.0000000  0.000000 138.00 1 1.100 0.900
182 1  0.00 0.00 0.25 -0.05 1 2.0000000  0.000000 138.00 1 1.100 0.900
183 2  0.00 0.00 0.00  0.00 1 0.5000000 30.000000  13.80 1 1.100 0.900
184 1 -3.40 8.80 0.00  0.00 1 2.0000000  0.000000 138.00 1 1.100 0.900
185 1  0.00 0.00 0.00  0.00 1 2.0000000  0.000000 138.00 1 1.100 0.900
186 1  0.00 0.00 0.25 -0.05 1 2.0000000  0.000000 138.00 1 1.100 0.900
187 2  0.00 0.00 0.00  0.00 1 0.5000000 30.000000  13.80 1 1.100 0.900
188 1 -3.40 8.80 0.00  0.00 1 2.0000000  0.000000 138.00 1 1.100 0.900
189 1  0.00 0.00 0.00  0.00 1 2.0000000  0.000000 138.00 1 1.100 0.900
190 1  0.00 0.00 0.25 -0.05 1 2.0000000  0.000000 138.00 1 1.100 0.900
191 2  0.00 0.00 0.00  0.00 1 0.5000000 30.000000  13.80 1 1.100 0.900
192 1 -3.40 8.80 0.00  0.00 1 2.0000000  0.000000 138.00 1 1.100 0.900
193 1  0.00 0.00 0.00  0.00 1 2.0000000  0.000000 138.00 1 1.100 0.900
194 1  0.00 0.00 0.25 -0.05 1 2.0000000  0.000000 138.00 1 1.100 0.900
195 2  0.00 0.00 0.00  0.00 1 0.5000000 30.000000  13.80 1 1.100 0.900
196 1 -3.40 8.80 0.00  0.00 1 2.0000000  0.000000 138.00 1 1.100 0.900
197 1  0.00 0.00 0.00  0.00 1 2.0000000  0.000000 138.00 1 1.100 0.900
198 1  0.00 0.00 0.25 -0.05 1 2.0000000  0.000000 138.00 1 1.100 0.900
199 2  0.00 0.00 0.00  0.00 1 0.5000000 30.000000  13.80 1 1.100 0.900
200 1 -3.40 8.80 0.00  0.00 1 2.0000000  0.000000 138.00 1 1.100 0.900
...
];

%% generator data
mpc.gen = [
3 1.60 -2.20 197.80 -202.20 0.5000 100.00 1 1.60 1.60 0.00 0.00 0.00 0.00 0.00 0.00 0 0 0 0 10.0000
7 1.60 -2.20 197.80 -202.20 0.5000 100.00 1 1.60 1.60 0.00 0.00 0.00 0.00 0.00 0.00 0 0 0 0 10.0000
11 1.60 -2.20 197.80 -202.20 0.5000 100.00 1 1.60 1.60 0.00 0.00 0.00 0.00 0.00 0.00 0 0 0 0 10.0000
15 1.60 -2.20 197.80 -202.20 0.5000 100.00 1 1.60 1.60 0.00 0.00 0.00 0.00 0.00 0.00 0 0 0 0 10.0000
19 1.60 -2.20 197.80 -202.20 0.5000 100.00 1 1.60 1.60 0.00 0.00 0.00 0.00 0.00 0.00 0 0 0 0 10.0000
23 1.60 -2.20 197.80 -202.20 0.5000 100.00 1 1.60 1.60 0.00 0.00 0.00 0.00 0.00 0.00 0 0 0 0 10.0000
27 1.60 -2.20 197.80 -202.20 0.5000 100.00 1 1.60 1.60 0.00 0.00 0.00 0.00 0.00 0.00 0 0 0 0 10.0000
31 1.60 -2.20 197.80 -202.20 0.5000 100.00 1 1.60 1.60 0.00 0.00 0.00 0.00 0.00 0.00 0 0 0 0 10.0000
35 1.60 -2.20 197.80 -202.20 0.5000 100.00 1 1.60 1.60 0.00 0.00 0.00 0.00 0.00 0.00 0 0 0 0 10.0000
39 1.60 -2.20 197.80 -202.20 0.5000 100.00 1 1.60 1.60 0.00 0.00 0.00 0.00 0.00 0.00 0 0 0 0 10.0000
43 1.60 -2.20 197.80 -202.20 0.5000 100.00 1 1.60 1.60 0.00 0.00 0.00 0.00 0.00 0.00 0 0 0 0 10.0000
47 1.60 -2.20 197.80 -202.20 0.5000 100.00 1 1.60 1.60 0.00 0.00 0.00 0.00 0.00 0.00 0 0 0 0 10.0000
51 1.60 -2.20 197.80 -202.20 0.5000 100.00 1 1.60 1.60 0.00 0.00 0.00 0.00 0.00 0.00 0 0 0 0 10.0000
55 1.60 -2.20 197.80 -202.20 0.5000 100.00 1 1.60 1.60 0.00 0.00 0.00 0.00 0.00 0.00 0 0 0 0 10.0000
59 1.60 -2.20 197.80 -202.20 0.5000 100.00 1 1.60 1.60 0.00 0.00 0.00 0.00 0.00 0.00 0 0 0 0 10.0000
63 1.60 -2.20 197.80 -202.20 0.5000 100.00 1 1.60 1.60 0.00 0.00 0.00 0.00 0.00 0.00 0 0 0 0 10.0000
67 1.60 -2.20 197.80 -202.20 0.5000 100.00 1 1.60 1.60 0.00 0.00 0.00 0.00 0.00 0.00 0 0 0 0 10.0000
71 1.60 -2.20 197.80 -202.20 0.5000 100.00 1 1.60 1.60 0.00 0.00 0.00 0.00 0.00 0.00 0 0 0 0 10.0000
75 1.60 -2.20 197.80 -202.20 0.5000 100.00 1 1.60 1.60 0.00 0.00 0.00 0.00 0.00 0.00 0 0 0 0 10.0000
79 1.60 -2.20 197.80 -202.20 0.5000 100.00 1 1.60 1.60 0.00 0.00 0.00 0.00 0.00 0.00 0 0 0 0 10.0000
83 1.60 -2.20 197.80 -202.20 0.5000 100.00 1 1.60 1.60 0.00 0.00 0.00 0.00 0.00 0.00 0 0 0 0 10.0000
87 1.60 -2.20 197.80 -202.20 0.5000 100.00 1 1.60 1.60 0.00 0.00 0.00 0.00 0.00 0.00 0 0 0 0 10.0000
91 1.60 -2.20 197.80 -202.20 0.5000 100.00 1 1.60 1.60 0.00 0.00 0.00 0.00 0.00 0.00 0 0 0 0 10.0000
95 1.60 -2.20 197.80 -202.20 0.5000 100.00 1 1.60 1.60 0.00 0.00 0.00 0.00 0.00 0.00 0 0 0 0 10.0000
99 1.60 -2.20 197.80 -202.20 0.5000 100.00 1 1.60 1.60 0.00 0.00 0.00 0.00 0.00 0.00 0 0 0 0 10.0000
103 1.60 -2.20 197.80 -202.20 0.5000 100.00 1 1.60 1.60 0.00 0.00 0.00 0.00 0.00 0.00 0 0 0 0 10.0000
107 1.60 -2.20 197.80 -202.20 0.5000 100.00 1 1.60 1.60 0.00 0.00 0.00 0.00 0.00 0.00 0 0 0 0 10.0000
111 1.60 -2.20 197.80 -202.20 0.5000 100.00 1 1.60 1.60 0.00 0.00 0.00 0.00 0.00 0.00 0 0 0 0 10.0000
115 1.60 -2.20 197.80 -202.20 0.5000 100.00 1 1.60 1.60 0.00 0.00 0.00 0.00 0.00 0.00 0 0 0 0 10.0000
119 1.60 -2.20 197.80 -202.20 0.5000 100.00 1 1.60 1.60 0.00 0.00 0.00 0.00 0.00 0.00 0 0 0 0 10.0000
123 1.60 -2.20 197.80 -202.20 0.5000 100.00 1 1.60 1.60 0.00 0.00 0.00 0.00 0.00 0.00 0 0 0 0 10.0000
127 1.60 -2.20 197.80 -202.20 0.5000 100.00 1 1.60 1.60 0.00 0.00 0.00 0.00 0.00 0.00 0 0 0 0 10.0000
131 1.60 -2.20 197.80 -202.20 0.5000 100.00 1 1.60 1.60 0.00 0.00 0.00 0.00 0.00 0.00 0 0 0 0 10.0000
135 1.60 -2.20 197.80 -202.20 0.5000 100.00 1 1.60 1.60 0.00 0.00 0.00 0.00 0.00 0.00 0 0 0 0 10.0000
139 1.60 -2.20 197.80 -202.20 0.5000 100.00 1 1.60 1.60 0.00 0.00 0.00 0.00 0.00 0.00 0 0 0 0 10.0000
143 1.60 -2.20 197.80 -202.20 0.5000 100.00 1 1.60 1.60 0.00 0.00 0.00 0.00 0.00 0.00 0 0 0 0 10.0000
147 1.60 -2.20 197.80 -202.20 0.5000 100.00 1 1.60 1.60 0.00 0.00 0.00 0.00 0.00 0.00 0 0 0 0 10.0000
151 1.60 -2.20 197.80 -202.20 0.5000 100.00 1 1.60 1.60 0.00 0.00 0.00 0.00 0.00 0.00 0 0 0 0 10.0000
155 1.60 -2.20 197.80 -202.20 0.5000 100.00 1 1.60 1.60 0.00 0.00 0.00 0.00 0.00 0.00 0 0 0 0 10.0000
159 1.60 -2.20 197.80 -202.20 0.5000 100.00 1 1.60 1.60 0.00 0.00 0.00 0.00 0.00 0.00 0 0 0 0 10.0000
163 1.60 -2.20 197.80 -202.20 0.5000 100.00 1 1.60 1.60 0.00 0.00 0.00 0.00 0.00 0.00 0 0 0 0 10.0000
167 1.60 -2.20 197.80 -202.20 0.5000 100.00 1 1.60 1.60 0.00 0.00 0.00 0.00 0.00 0.00 0 0 0 0 10.0000
171 1.60 -2.20 197.80 -202.20 0.5000 100.00 1 1.60 1.60 0.00 0.00 0.00 0.00 0.00 0.00 0 0 0 0 10.0000
175 1.60 -2.20 197.80 -202.20 0.5000 100.00 1 1.60 1.60 0.00 0.00 0.00 0.00 0.00 0.00 0 0 0 0 10.0000
179 1.60 -2.20 197.80 -202.20 0.5000 100.00 1 1.60 1.60 0.00 0.00 0.00 0.00 0.00 0.00 0 0 0 0 10.0000
183 1.60 -2.20 197.80 -202.20 0.5000 100.00 1 1.60 1.60 0.00 0.00 0.00 0.00 0.00 0.00 0 0 0 0 10.0000
187 1.60 -2.20 197.80 -202.20 0.5000 100.00 1 1.60 1.60 0.00 0.00 0.00 0.00 0.00 0.00 0 0 0 0 10.0000
191 1.60 -2.20 197.80 -202.20 0.5000 100.00 1 1.60 1.60 0.00 0.00 0.00 0.00 0.00 0.00 0 0 0 0 10.0000
195 1.60 -2.20 197.80 -202.20 0.5000 100.00 1 1.60 1.60 0.00 0.00 0.00 0.00 0.00 0.00 0 0 0 0 10.0000
199 1.60 -2.20 197.80 -202.20 0.5000 100.00 1 1.60 1.60 0.00 0.00 0.00 0.00 0.00 0.00 0 0 0 0 10.0000
203 1.60 -2.20 197.80 -202.20 0.5000 100.00 1 1.60 1.60 0.00 0.00 0.00 0.00 0.00 0.00 0 0 0 0 10.0000
207 1.60 -2.20 197.80 -202.20 0.5000 100.00 1 1.60 1.60 0.00 0.00 0.00 0.00 0.00 0.00 0 0 0 0 10.0000
211 1.60 -2.20 197.80 -202.20 0.5000 100.00 1 1.60 1.60 0.00 0.00 0.00 0.00 0.00 0.00 0 0 0 0 10.0000
215 1.60 -2.20 197.80 -202.20 0.5000 100.00 1 1.60 1.60 0.00 0.00 0.00 0.00 0.00 0.00 0 0 0 0 10.0000
219 1.60 -2.20 197.80 -202.20 0.5000 100.00 1 1.60 1.60 0.00 0.00 0.00 0.00 0.00 0.00 0 0 0 0 10.0000
223 1.60 -2.20 197.80 -202.20 0.5000 100.00 1 1.60 1.60 0.00 0.00 0.00 0.00 0.00 0.00 0 0 0 0 10.0000
227 1.60 -2.20 197.80 -202.20 0.5000 100.00 1 1.60 1.60 0.00 0.00 0.00 0.00 0.00 0.00 0 0 0 0 10.0000
231 1.60 -2.20 197.80 -202.20 0.5000 100.00 1 1.60 1.60 0.00 0.00 0.00 0.00 0.00 0.00 0 0 0 0 10.0000
235 1.60 -2.20 197.80 -202.20 0.5000 100.00 1 1.60 1.60 0.00 0.00 0.00 0.00 0.00 0.00 0 0 0 0 10.0000
239 1.60 -2.20 197.80 -202.20 0.5000 100.00 1 1.60 1.60 0.00 0.00 0.00 0.00 0.00 0.00 0 0 0 0 10.0000
243 1.60 -2.20 197.80 -202.20 0.5000 100.00 1 1.60 1.60 0.00 0.00 0.00 0.00 0.00 0.00 0 0 0 0 10.0000
247 1.60 -2.20 197.80 -202.20 0.5000 100.00 1 1.60 1.60 0.00 0.00 0.00 0.00 0.00 0.00 0 0 0 0 10.0000
251 1.60 -2.20 197.80 -202.20 0.5000 100.00 1 1.60 1.60 0.00 0.00 0.00 0.00 0.00 0.00 0 0 0 0 10.0000
255 1.60 -2.20 197.80 -202.20 0.5000 100.00 1 1.60 1.60 0.00 0.00 0.00 0.00 0.00 0.00 0 0 0 0 10.0000
259 1.60 -2.20 197.80 -202.20 0.5000 100.00 1 1.60 1.60 0.00 0.00 0.00 0.00 0.00 0.00 0 0 0 0 10.0000
263 1.60 -2.20 197.80 -202.20 0.5000 100.00 1 1.60 1.60 0.00 0.00 0.00 0.00 0.00 0.00 0 0 0 0 10.0000
267 1.60 -2.20 197.80 -202.20 0.5000 100.00 1 1.60 1.60 0.00 0.00 0.00 0.00 0.00 0.00 0 0 0 0 10.0000
271 1.60 -2.20 197.80 -202.20 0.5000 100.00 1 1.60 1.60 0.00 0.00 0.00 0.00 0.00 0.00 0 0 0 0 10.0000
275 1.60 -2.20 197.80 -202.20 0.5000 100.00 1 1.60 1.60 0.00 0.00 0.00 0.00 0.00 0.00 0 0 0 0 10.0000
279 1.60 -2.20 197.80 -202.20 0.5000 100.00 1 1.60 1.60 0.00 0.00 0.00 0.00 0.00 0.00 0 0 0 0 10.0000
283 1.60 -2.20 197.80 -202.20 0.5000 100.00 1 1.60 1.60 0.00 0.00 0.00 0.00 0.00 0.00 0 0 0 0 10.0000
287 1.60 -2.20 197.80 -202.20 0.5000 100.00 1 1.60 1.60 0.00 0.00 0.00 0.00 0.00 0.00 0 0 0 0 10.0000
291 1.60 -2.20 197.80 -202.20 0.5000 100.00 1 1.60 1.60 0.00 0.00 0.00 0.00 0.00 0.00 0 0 0 0 10.0000
295 1.60 -2.20 197.80 -202.20 0.5000 100.00 1 1.60 1.60 0.00 0.00 0.00 0.00 0.00 0.00 0 0 0 0 10.0000
299 1.60 -2.20 197.80 -202.20 0.5000 100.00 1 1.60 1.60 0.00 0.00 0.00 0.00 0.00 0.00 0 0 0 0 10.0000
303 1.60 -2.20 197.80 -202.20 0.5000 100.00 1 1.60 1.60 0.00 0.00 0.00 0.00 0.00 0.00 0 0 0 0 10.0000
307 1.60 -2.20 197.80 -202.20 0.5000 100.00 1 1.60 1.60 0.00 0.00 0.00 0.00 0.00 0.00 0 0 0 0 10.0000
311 1.60 -2.20 197.80 -202.20 0.5000 100.00 1 1.60 1.60 0.00 0.00 0.00 0.00 0.00 0.00 0 0 0 0 10.0000
315 1.60 -2.20 197.80 -202.20 0.5000 100.00 1 1.60 1.60 0.00 0.00 0.00 0.00 0.00 0.00 0 0 0 0 10.0000
319 1.60 -2.20 197.80 -202.20 0.5000 100.00 1 1.60 1.60 0.00 0.00 0.00 0.00 0.00 0.00 0 0 0 0 10.0000
323 1.60 -2.20 197.80 -202.20 0.5000 100.00 1 1.60 1.60 0.00 0.00 0.00 0.00 0.00 0.00 0 0 0 0 10.0000
327 1.60 -2.20 197.80 -202.20 0.5000 100.00 1 1.60 1.60 0.00 0.00 0.00 0.00 0.00 0.00 0 0 0 0 10.0000
331 1.60 -2.20 197.80 -202.20 0.5000 100.00 1 1.60 1.60 0.00 0.00 0.00 0.00 0.00 0.00 0 0 0 0 10.0000
335 1.60 -2.20 197.80 -202.20 0.5000 100.00 1 1.60 1.60 0.00 0.00 0.00 0.00 0.00 0.00 0 0 0 0 10.0000
339 1.60 -2.20 197.80 -202.20 0.5000 100.00 1 1.60 1.60 0.00 0.00 0.00 0.00 0.00 0.00 0 0 0 0 10.0000
343 1.60 -2.20 197.80 -202.20 0.5000 100.00 1 1.60 1.60 0.00 0.00 0.00 0.00 0.00 0.00 0 0 0 0 10.0000
347 1.60 -2.20 197.80 -202.20 0.5000 100.00 1 1.60 1.60 0.00 0.00 0.00 0.00 0.00 0.00 0 0 0 0 10.0000
351 1.60 -2.20 197.80 -202.20 0.5000 100.00 1 1.60 1.60 0.00 0.00 0.00 0.00 0.00 0.00 0 0 0 0 10.0000
355 1.60 -2.20 197.80 -202.20 0.5000 100.00 1 1.60 1.60 0.00 0.00 0.00 0.00 0.00 0.00 0 0 0 0 10.0000
359 1.60 -2.20 197.80 -202.20 0.5000 100.00 1 1.60 1.60 0.00 0.00 0.00 0.00 0.00 0.00 0 0 0 0 10.0000
363 1.60 -2.20 197.80 -202.20 0.5000 100.00 1 1.60 1.60 0.00 0.00 0.00 0.00 0.00 0.00 0 0 0 0 10.0000
367 1.60 -2.20 197.80 -202.20 0.5000 100.00 1 1.60 1.60 0.00 0.00 0.00 0.00 0.00 0.00 0 0 0 0 10.0000
371 1.60 -2.20 197.80 -202.20 0.5000 100.00 1 1.60 1.60 0.00 0.00 0.00 0.00 0.00 0.00 0 0 0 0 10.0000
375 1.60 -2.20 197.80 -202.20 0.5000 100.00 1 1.60 1.60 0.00 0.00 0.00 0.00 0.00 0.00 0 0 0 0 10.0000
379 1.60 -2.20 197.80 -202.20 0.5000 100.00 1 1.60 1.60 0.00 0.00 0.00 0.00 0.00 0.00 0 0 0 0 10.0000
383 1.60 -2.20 197.80 -202.20 0.5000 100.00 1 1.60 1.60 0.00 0.00 0.00 0.00 0.00 0.00 0 0 0 0 10.0000
387 1.60 -2.20 197.80 -202.20 0.5000 100.00 1 1.60 1.60 0.00 0.00 0.00 0.00 0.00 0.00 0 0 0 0 10.0000
391 1.60 -2.20 197.80 -202.20 0.5000 100.00 1 1.60 1.60 0.00 0.00 0.00 0.00 0.00 0.00 0 0 0 0 10.0000
395 1.60 -2.20 197.80 -202.20 0.5000 100.00 1 1.60 1.60 0.00 0.00 0.00 0.00 0.00 0.00 0 0 0 0 10.0000
399 1.60 -2.20 197.80 -202.20 0.5000 100.00 1 1.60 1.60 0.00 0.00 0.00 0.00 0.00 0.00 0 0 0 0 10.0000
403 1.60 -2.20 197.80 -202.20 0.5000 100.00 1 1.60 1.60 0.00 0.00 0.00 0.00 0.00 0.00 0 0 0 0 10.0000
407 1.60 -2.20 197.80 -202.20 0.5000 100.00 1 1.60 1.60 0.00 0.00 0.00 0.00 0.00 0.00 0 0 0 0 10.0000
411 1.60 -2.20 197.80 -202.20 0.5000 100.00 1 1.60 1.60 0.00 0.00 0.00 0.00 0.00 0.00 0 0 0 0 10.0000
415 1.60 -2.20 197.80 -202.20 0.5000 100.00 1 1.60 1.60 0.00 0.00 0.00 0.00 0.00 0.00 0 0 0 0 10.0000
419 1.60 -2.20 197.80 -202.20 0.5000 100.00 1 1.60 1.60 0.00 0.00 0.00 0.00 0.00 0.00 0 0 0 0 10.0000
423 1.60 -2.20 197.80 -202.20 0.5000 100.00 1 1.60 1.60 0.00 0.00 0.00 0.00 0.00 0.00 0 0 0 0 10.0000
427 1.60 -2.20 197.80 -202.20 0.5000 100.00 1 1.60 1.60 0.00 0.00 0.00 0.00 0.00 0.00 0 0 0 0 10.0000
431 1.60 -2.20 197.80 -202.20 0.5000 100.00 1 1.60 1.60 0.00 0.00 0.00 0.00 0.00 0.00 0 0 0 0 10.0000
435 1.60 -2.20 197.80 -202.20 0.5000 100.00 1 1.60 1.60 0.00 0.00 0.00 0.00 0.00 0.00 0 0 0 0 10.0000
439 1.60 -2.20 197.80 -202.20 0.5000 100.00 1 1.60 1.60 0.00 0.00 0.00 0.00 0.00 0.00 0 0 0 0 10.0000
443 1.60 -2.20 197.80 -202.20 0.5000 100.00 1 1.60 1.60 0.00 0.00 0.00 0.00 0.00 0.00 0 0 0 0 10.0000
447 1.60 -2.20 197.80 -202.20 0.5000 100.00 1 1.60 1.60 0.00 0.00 0.00 0.00 0.00 0.00 0 0 0 0 10.0000
451 1.60 -2.20 197.80 -202.20 0.5000 100.00 1 1.60 1.60 0.00 0.00 0.00 0.00 0.00 0.00 0 0 0 0 10.0000
455 1.60 -2.20 197.80 -202.20 0.5000 100.00 1 1.60 1.60 0.00 0.00 0.00 0.00 0.00 0.00 0 0 0 0 10.0000
459 1.60 -2.20 197.80 -202.20 0.5000 100.00 1 1.60 1.60 0.00 0.00 0.00 0.00 0.00 0.00 0 0 0 0 10.0000
463 1.60 -2.20 197.80 -202.20 0.5000 100.00 1 1.60 1.60 0.00 0.00 0.00 0.00 0.00 0.00 0 0 0 0 10.0000
467 1.60 -2.20 197.80 -202.20 0.5000 100.00 1 1.60 1.60 0.00 0.00 0.00 0.00 0.00 0.00 0 0 0 0 10.0000
471 1.60 -2.20 197.80 -202.20 0.5000 100.00 1 1.60 1.60 0.00 0.00 0.00 0.00 0.00 0.00 0 0 0 0 10.0000
475 1.60 -2.20 197.80 -202.20 0.5000 100.00 1 1.60 1.60 0.00 0.00 0.00 0.00 0.00 0.00 0 0 0 0 10.0000
479 1.60 -2.20 197.80 -202.20 0.5000 100.00 1 1.60 1.60 0.00 0.00 0.00 0.00 0.00 0.00 0 0 0 0 10.0000
483 1.60 -2.20 197.80 -202.20 0.5000 100.00 1 1.60 1.60 0.00 0.00 0.00 0.00 0.00 0.00 0 0 0 0 10.0000
487 1.60 -2.20 197.80 -202.20 0.5000 100.00 1 1.60 1.60 0.00 0.00 0.00 0.00 0.00 0.00 0 0 0 0 10.0000
491 1.60 -2.20 197.80 -202.20 0.5000 100.00 1 1.60 1.60 0.00 0.00 0.00 0.00 0.00 0.00 0 0 0 0 10.0000
495 1.60 -2.20 197.80 -202.20 0.5000 100.00 1 1.60 1.60 0.00 0.00 0.00 0.00 0.00 0.00 0 0 0 0 10.0000
499 1.60 -2.20 197.80 -202.20 0.5000 100.00 1 1.60 1.60 0.00 0.00 0.00 0.00 0.00 0.00 0 0 0 0 10.0000
503 1.60 -2.20 197.80 -202.20 0.5000 100.00 1 1.60 1.60 0.00 0.00 0.00 0.00 0.00 0.00 0 0 0 0 10.0000
507 1.60 -2.20 197.80 -202.20 0.5000 100.00 1 1.60 1.60 0.00 0.00 0.00 0.00 0.00 0.00 0 0 0 0 10.0000
511 1.60 -2.20 197.80 -202.20 0.5000 100.00 1 1.60 1.60 0.00 0.00 0.00 0.00 0.00 0.00 0 0 0 0 10.0000
515 1.60 -2.20 197.80 -202.20 0.5000 100.00 1 1.60 1.60 0.00 0.00 0.00 0.00 0.00 0.00 0 0 0 0 10.0000
519 1.60 -2.20 197.80 -202.20 0.5000 100.00 1 1.60 1.60 0.00 0.00 0.00 0.00 0.00 0.00 0 0 0 0 10.0000
523 1.60 -2.20 197.80 -202.20 0.5000 100.00 1 1.60 1.60 0.00 0.00 0.00 0.00 0.00 0.00 0 0 0 0 10.0000
527 1.60 -2.20 197.80 -202.20 0.5000 100.00 1 1.60 1.60 0.00 0.00 0.00 0.00 0.00 0.00 0 0 0 0 10.0000
531 1.60 -2.20 197.80 -202.20 0.5000 100.00 1 1.60 1.60 0.00 0.00 0.00 0.00 0.00 0.00 0 0 0 0 10.0000
535 1.60 -2.20 197.80 -202.20 0.5000 100.00 1 1.60 1.60 0.00 0.00 0.00 0.00 0.00 0.00 0 0 0 0 10.0000
539 1.60 -2.20 197.80 -202.20 0.5000 100.00 1 1.60 1.60 0.00 0.00 0.00 0.00 0.00 0.00 0 0 0 0 10.0000
543 1.60 -2.20 197.80 -202.20 0.5000 100.00 1 1.60 1.60 0.00 0.00 0.00 0.00 0.00 0.00 0 0 0 0 10.0000
547 1.60 -2.20 197.80 -202.20 0.5000 100.00 1 1.60 1.60 0.00 0.00 0.00 0.00 0.00 0.00 0 0 0 0 10.0000
551 1.60 -2.20 197.80 -202.20 0.5000 100.00 1 1.60 1.60 0.00 0.00 0.00 0.00 0.00 0.00 0 0 0 0 10.0000
555 1.60 -2.20 197.80 -202.20 0.5000 100.00 1 1.60 1.60 0.00 0.00 0.00 0.00 0.00 0.00 0 0 0 0 10.0000
559 1.60 -2.20 197.80 -202.20 0.5000 100.00 1 1.60 1.60 0.00 0.00 0.00 0.00 0.00 0.00 0 0 0 0 10.0000
563 1.60 -2.20 197.80 -202.20 0.5000 100.00 1 1.60 1.60 0.00 0.00 0.00 0.00 0.00 0.00 0 0 0 0 10.0000
567 1.60 -2.20 197.80 -202.20 0.5000 100.00 1 1.60 1.60 0.00 0.00 0.00 0.00 0.00 0.00 0 0 0 0 10.0000
571 1.60 -2.20 197.80 -202.20 0.5000 100.00 1 1.60 1.60 0.00 0.00 0.00 0.00 0.00 0.00 0 0 0 0 10.0000
575 1.60 -2.20 197.80 -202.20 0.5000 100.00 1 1.60 1.60 0.00 0.00 0.00 0.00 0.00 0.00 0 0 0 0 10.0000
579 1.60 -2.20 197.80 -202.20 0.5000 100.00 1 1.60 1.60 0.00 0.00 0.00 0.00 0.00 0.00 0 0 0 0 10.0000
583 1.60 -2.20 197.80 -202.20 0.5000 100.00 1 1.60 1.60 0.00 0.00 0.00 0.00 0.00 0.00 0 0 0 0 10.0000
587 1.60 -2.20 197.80 -202.20 0.5000 100.00 1 1.60 1.60 0.00 0.00 0.00 0.00 0.00 0.00 0 0 0 0 10.0000
591 1.60 -2.20 197.80 -202.20 0.5000 100.00 1 1.60 1.60 0.00 0.00 0.00 0.00 0.00 0.00 0 0 0 0 10.0000
595 1.60 -2.20 197.80 -202.20 0.5000 100.00 1 1.60 1.60 0.00 0.00 0.00 0.00 0.00 0.00 0 0 0 0 10.0000
599 1.60 -2.20 197.80 -202.20 0.5000 100.00 1 1.60 1.60 0.00 0.00 0.00 0.00 0.00 0.00 0 0 0 0 10.0000
603 1.60 -2.20 197.80 -202.20 0.5000 100.00 1 1.60 1.60 0.00 0.00 0.00 0.00 0.00 0.00 0 0 0 0 10.0000
607 1.60 -2.20 197.80 -202.20 0.5000 100.00 1 1.60 1.60 0.00 0.00 0.00 0.00 0.00 0.00 0 0 0 0 10.0000
611 1.60 -2.20 197.80 -202.20 0.5000 100.00 1 1.60 1.60 0.00 0.00 0.00 0.00 0.00 0.00 0 0 0 0 10.0000
615 1.60 -2.20 197.80 -202.20 0.5000 100.00 1 1.60 1.60 0.00 0.00 0.00 0.00 0.00 0.00 0 0 0 0 10.0000
619 1.60 -2.20 197.80 -202.20 0.5000 100.00 1 1.60 1.60 0.00 0.00 0.00 0.00 0.00 0.00 0 0 0 0 10.0000
623 1.60 -2.20 197.80 -202.20 0.5000 100.00 1 1.60 1.60 0.00 0.00 0.00 0.00 0.00 0.00 0 0 0 0 10.0000
627 1.60 -2.20 197.80 -202.20 0.5000 100.00 1 1.60 1.60 0.00 0.00 0.00 0.00 0.00 0.00 0 0 0 0 10.0000
631 1.60 -2.20 197.80 -202.20 0.5000 100.00 1 1.60 1.60 0.00 0.00 0.00 0.00 0.00 0.00 0 0 0 0 10.0000
635 1.60 -2.20 197.80 -202.20 0.5000 100.00 1 1.60 1.60 0.00 0.00 0.00 0.00 0.00 0.00 0 0 0 0 10.0000
639 1.60 -2.20 197.80 -202.20 0.5000 100.00 1 1.60 1.60 0.00 0.00 0.00 0.00 0.00 0.00 0 0 0 0 10.0000
643 1.60 -2.20 197.80 -202.20 0.5000 100.00 1 1.60 1.60 0.00 0.00 0.00 0.00 0.00 0.00 0 0 0 0 10.0000
647 1.60 -2.20 197.80 -202.20 0.5000 100.00 1 1.60 1.60 0.00 0.00 0.00 0.00 0.00 0.00 0 0 0 0 10.0000
651 1.60 -2.20 197.80 -202.20 0.5000 100.00 1 1.60 1.60 0.00 0.00 0.00 0.00 0.00 0.00 0 0 0 0 10.0000
655 1.60 -2.20 197.80 -202.20 0.5000 100.00 1 1.60 1.60 0.00 0.00 0.00 0.00 0.00 0.00 0 0 0 0 10.0000
659 1.60 -2.20 197.80 -202.20 0.5000 100.00 1 1.60 1.60 0.00 0.00 0.00 0.00 0.00 0.00 0 0 0 0 10.0000
663 1.60 -2.20 197.80 -202.20 0.5000 100.00 1 1.60 1.60 0.00 0.00 0.00 0.00 0.00 0.00 0 0 0 0 10.0000
667 1.60 -2.20 197.80 -202.20 0.5000 100.00 1 1.60 1.60 0.00 0.00 0.00 0.00 0.00 0.00 0 0 0 0 10.0000
671 1.60 -2.20 197.80 -202.20 0.5000 100.00 1 1.60 1.60 0.00 0.00 0.00 0.00 0.00 0.00 0 0 0 0 10.0000
675 1.60 -2.20 197.80 -202.20 0.5000 100.00 1 1.60 1.60 0.00 0.00 0.00 0.00 0.00 0.00 0 0 0 0 10.0000
679 1.60 -2.20 197.80 -202.20 0.5000 100.00 1 1.60 1.60 0.00 0.00 0.00 0.00 0.00 0.00 0 0 0 0 10.0000
683 1.60 -2.20 197.80 -202.20 0.5000 100.00 1 1.60 1.60 0.00 0.00 0.00 0.00 0.00 0.00 0 0 0 0 10.0000
687 1.60 -2.20 197.80 -202.20 0.5000 100.00 1 1.60 1.60 0.00 0.00 0.00 0.00 0.00 0.00 0 0 0 0 10.0000
691 1.60 -2.20 197.80 -202.20 0.5000 100.00 1 1.60 1.60 0.00 0.00 0.00 0.00 0.00 0.00 0 0 0 0 10.0000
695 1.60 -2.20 197.80 -202.20 0.5000 100.00 1 1.60 1.60 0.00 0.00 0.00 0.00 0.00 0.00 0 0 0 0 10.0000
699 1.60 -2.20 197.80 -202.20 0.5000 100.00 1 1.60 1.60 0.00 0.00 0.00 0.00 0.00 0.00 0 0 0 0 10.0000
703 1.60 -2.20 197.80 -202.20 0.5000 100.00 1 1.60 1.60 0.00 0.00 0.00 0.00 0.00 0.00 0 0 0 0 10.0000
707 1.60 -2.20 197.80 -202.20 0.5000 100.00 1 1.60 1.60 0.00 0.00 0.00 0.00 0.00 0.00 0 0 0 0 10.0000
711 1.60 -2.20 197.80 -202.20 0.5000 100.00 1 1.60 1.60 0.00 0.00 0.00 0.00 0.00 0.00 0 0 0 0 10.0000
715 1.60 -2.20 197.80 -202.20 0.5000 100.00 1 1.60 1.60 0.00 0.00 0.00 0.00 0.00 0.00 0 0 0 0 10.0000
719 1.60 -2.20 197.80 -202.20 0.5000 100.00 1 1.60 1.60 0.00 0.00 0.00 0.00 0.00 0.00 0 0 0 0 10.0000
723 1.60 -2.20 197.80 -202.20 0.5000 100.00 1 1.60 1.60 0.00 0.00 0.00 0.00 0.00 0.00 0 0 0 0 10.0000
727 1.60 -2.20 197.80 -202.20 0.5000 100.00 1 1.60 1.60 0.00 0.00 0.00 0.00 0.00 0.00 0 0 0 0 10.0000
731 1.60 -2.20 197.80 -202.20 0.5000 100.00 1 1.60 1.60 0.00 0.00 0.00 0.00 0.00 0.00 0 0 0 0 10.0000
735 1.60 -2.20 197.80 -202.20 0.5000 100.00 1 1.60 1.60 0.00 0.00 0.00 0.00 0.00 0.00 0 0 0 0 10.0000
739 1.60 -2.20 197.80 -202.20 0.5000 100.00 1 1.60 1.60 0.00 0.00 0.00 0.00 0.00 0.00 0 0 0 0 10.0000
743 1.60 -2.20 197.80 -202.20 0.5000 100.00 1 1.60 1.60 0.00 0.00 0.00 0.00 0.00 0.00 0 0 0 0 10.0000
747 1.60 -2.20 197.80 -202.20 0.5000 100.00 1 1.60 1.60 0.00 0.00 0.00 0.00 0.00 0.00 0 0 0 0 10.0000
751 1.60 -2.20 197.80 -202.20 0.5000 100.00 1 1.60 1.60 0.00 0.00 0.00 0.00 0.00 0.00 0 0 0 0 10.0000
755 1.60 -2.20 197.80 -202.20 0.5000 100.00 1 1.60 1.60 0.00 0.00 0.00 0.00 0.00 0.00 0 0 0 0 10.0000
759 1.60 -2.20 197.80 -202.20 0.5000 100.00 1 1.60 1.60 0.00 0.00 0.00 0.00 0.00 0.00 0 0 0 0 10.0000
763 1.60 -2.20 197.80 -202.20 0.5000 100.00 1 1.60 1.60 0.00 0.00 0.00 0.00 0.00 0.00 0 0 0 0 10.0000
767 1.60 -2.20 197.80 -202.20 0.5000 100.00 1 1.60 1.60 0.00 0.00 0.00 0.00 0.00 0.00 0 0 0 0 10.0000
771 1.60 -2.20 197.80 -202.20 0.5000 100.00 1 1.60 1.60 0.00 0.00 0.00 0.00 0.00 0.00 0 0 0 0 10.0000
775 1.60 -2.20 197.80 -202.20 0.5000 100.00 1 1.60 1.60 0.00 0.00 0.00 0.00 0.00 0.00 0 0 0 0 10.0000
779 1.60 -2.20 197.80 -202.20 0.5000 100.00 1 1.60 1.60 0.00 0.00 0.00 0.00 0.00 0.00 0 0 0 0 10.0000
783 1.60 -2.20 197.80 -202.20 0.5000 100.00 1 1.60 1.60 0.00 0.00 0.00 0.00 0.00 0.00 0 0 0 0 10.0000
787 1.60 -2.20 197.80 -202.20 0.5000 100.00 1 1.60 1.60 0.00 0.00 0.00 0.00 0.00 0.00 0 0 0 0 10.0000
791 1.60 -2.20 197.80 -202.20 0.5000 100.00 1 1.60 1.60 0.00 0.00 0.00 0.00 0.00 0.00 0 0 0 0 10.0000
795 1.60 -2.20 197.80 -202.20 0.5000 100.00 1 1.60 1.60 0.00 0.00 0.00 0.00 0.00 0.00 0 0 0 0 10.0000
799 1.60 -2.20 197.80 -202.20 0.5000 100.00 1 1.60 1.60 0.00 0.00 0.00 0.00 0.00 0.00 0 0 0 0 10.0000
...
];

%% generator cost data
mpc.gencost = [
2 0 0 3 0.010 0.100 8.00 0.0000 
2 0 0 3 0.010 0.100 8.00 0.0000 
2 0 0 3 0.010 0.100 8.00 0.0000 
2 0 0 3 0.010 0.100 8.00 0.0000 
2 0 0 3 0.010 0.100 8.00 0.0000 
2 0 0 3 0.010 0.100 8.00 0.0000 
2 0 0 3 0.010 0.100 8.00 0.0000 
2 0 0 3 0.010 0.100 8.00 0.0000 
2 0 0 3 0.010 0.100 8.00 0.0000 
2 0 0 3 0.010 0.100 8.00 0.0000 
2 0 0 3 0.010 0.100 8.00 0.0000 
2 0 0 3 0.010 0.100 8.00 0.0000 
2 0 0 3 0.010 0.100 8.00 0.0000 
2 0 0 3 0.010 0.100 8.00 0.0000 
2 0 0 3 0.010 0.100 8.00 0.0000 
2 0 0 3 0.010 0.100 8.00 0.0000 
2 0 0 3 0.010 0.100 8.00 0.0000 
2 0 0 3 0.010 0.100 8.00 0.0000 
2 0 0 3 0.010 0.100 8.00 0.0000 
2 0 0 3 0.010 0.100 8.00 0.0000 
2 0 0 3 0.010 0.100 8.00 0.0000 
2 0 0 3 0.010 0.100 8.00 0.0000 
2 0 0 3 0.010 0.100 8.00 0.0000 
2 0 0 3 0.010 0.100 8.00 0.0000 
2 0 0 3 0.010 0.100 8.00 0.0000 
2 0 0 3 0.010 0.100 8.00 0.0000 
2 0 0 3 0.010 0.100 8.00 0.0000 
2 0 0 3 0.010 0.100 8.00 0.0000 
2 0 0 3 0.010 0.100 8.00 0.0000 
2 0 0 3 0.010 0.100 8.00 0.0000 
2 0 0 3 0.010 0.100 8.00 0.0000 
2 0 0 3 0.010 0.100 8.00 0.0000 
2 0 0 3 0.010 0.100 8.00 0.0000 
2 0 0 3 0.010 0.100 8.00 0.0000 
2 0 0 3 0.010 0.100 8.00 0.0000 
2 0 0 3 0.010 0.100 8.00 0.0000 
2 0 0 3 0.010 0.100 8.00 0.0000 
2 0 0 3 0.010 0.100 8.00 0.0000 
2 0 0 3 0.010 0.100 8.00 0.0000 
2 0 0 3 0.010 0.100 8.00 0.0000 
2 0 0 3 0.010 0.100 8.00 0.0000 
2 0 0 3 0.010 0.100 8.00 0.0000 
2 0 0 3 0.010 0.100 8.00 0.0000 
2 0 0 3 0.010 0.100 8.00 0.0000 
2 0 0 3 0.010 0.100 8.00 0.0000 
2 0 0 3 0.010 0.100 8.00 0.0000 
2 0 0 3 0.010 0.100 8.00 0.0000 
2 0 0 3 0.010 0.100 8.00 0.0000 
2 0 0 3 0.010 0.100 8.00 0.0000 
2 0 0 3 0.010 0.100 8.00 0.0000 
2 0 0 3 0.010 0.100 8.00 0.0000 
2 0 0 3 0.010 0.100 8.00 0.0000 
2 0 0 3 0.010 0.100 8.00 0.0000 
2 0 0 3 0.010 0.100 8.00 0.0000 
2 0 0 3 0.010 0.100 8.00 0.0000 
2 0 0 3 0.010 0.100 8.00 0.0000 
2 0 0 3 0.010 0.100 8.00 0.0000 
2 0 0 3 0.010 0.100 8.00 0.0000 
2 0 0 3 0.010 0.100 8.00 0.0000 
2 0 0 3 0.010 0.100 8.00 0.0000 
2 0 0 3 0.010 0.100 8.00 0.0000 
2 0 0 3 0.010 0.100 8.00 0.0000 
2 0 0 3 0.010 0.100 8.00 0.0000 
2 0 0 3 0.010 0.100 8.00 0.0000 
2 0 0 3 0.010 0.100 8.00 0.0000 
2 0 0 3 0.010 0.100 8.00 0.0000 
2 0 0 3 0.010 0.100 8.00 0.0000 
2 0 0 3 0.010 0.100 8.00 0.0000 
2 0 0 3 0.010 0.100 8.00 0.0000 
2 0 0 3 0.010 0.100 8.00 0.0000 
2 0 0 3 0.010 0.100 8.00 0.0000 
2 0 0 3 0.010 0.100 8.00 0.0000 
2 0 0 3 0.010 0.100 8.00 0.0000 
2 0 0 3 0.010 0.100 8.00 0.0000 
2 0 0 3 0.010 0.100 8.00 0.0000 
2 0 0 3 0.010 0.100 8.00 0.0000 
2 0 0 3 0.010 0.100 8.00 0.0000 
2 0 0 3 0.010 0.100 8.00 0.0000 
2 0 0 3 0.010 0.100 8.00 0.0000 
2 0 0 3 0.010 0.100 8.00 0.0000 
2 0 0 3 0.010 0.100 8.00 0.0000 
2 0 0 3 0.010 0.100 8.00 0.0000 
2 0 0 3 0.010 0.100 8.00 0.0000 
2 0 0 3 0.010 0.100 8.00 0.0000 
2 0 0 3 0.010 0.100 8.00 0.0000 
2 0 0 3 0.010 0.100 8.00 0.0000 
2 0 0 3 0.010 0.100 8.00 0.0000 
2 0 0 3 0.010 0.100 8.00 0.0000 
2 0 0 3 0.010 0.100 8.00 0.0000 
2 0 0 3 0.010 0.100 8.00 0.0000 
2 0 0 3 0.010 0.100 8.00 0.0000 
2 0 0 3 0.010 0.100 8.00 0.0000 
2 0 0 3 0.010 0.100 8.00 0.0000 
2 0 0 3 0.010 0.100 8.00 0.0000 
2 0 0 3 0.010 0.100 8.00 0.0000 
2 0 0 3 0.010 0.100 8.00 0.0000 
2 0 0 3 0.010 0.100 8.00 0.0000 
2 0 0 3 0.010 0.100 8.00 0.0000 
2 0 0 3 0.010 0.100 8.00 0.0000 
2 0 0 3 0.010 0.100 8.00 0.0000 
2 0 0 3 0.010 0.100 8.00 0.0000 
2 0 0 3 0.010 0.100 8.00 0.0000 
2 0 0 3 0.010 0.100 8.00 0.0000 
2 0 0 3 0.010 0.100 8.00 0.0000 
2 0 0 3 0.010 0.100 8.00 0.0000 
2 0 0 3 0.010 0.100 8.00 0.0000 
2 0 0 3 0.010 0.100 8.00 0.0000 
2 0 0 3 0.010 0.100 8.00 0.0000 
2 0 0 3 0.010 0.100 8.00 0.0000 
2 0 0 3 0.010 0.100 8.00 0.0000 
2 0 0 3 0.010 0.100 8.00 0.0000 
2 0 0 3 0.010 0.100 8.00 0.0000 
2 0 0 3 0.010 0.100 8.00 0.0000 
2 0 0 3 0.010 0.100 8.00 0.0000 
2 0 0 3 0.010 0.100 8.00 0.0000 
2 0 0 3 0.010 0.100 8.00 0.0000 
2 0 0 3 0.010 0.100 8.00 0.0000 
2 0 0 3 0.010 0.100 8.00 0.0000 
2 0 0 3 0.010 0.100 8.00 0.0000 
2 0 0 3 0.010 0.100 8.00 0.0000 
2 0 0 3 0.010 0.100 8.00 0.0000 
2 0 0 3 0.010 0.100 8.00 0.0000 
2 0 0 3 0.010 0.100 8.00 0.0000 
2 0 0 3 0.010 0.100 8.00 0.0000 
2 0 0 3 0.010 0.100 8.00 0.0000 
2 0 0 3 0.010 0.100 8.00 0.0000 
2 0 0 3 0.010 0.100 8.00 0.0000 
2 0 0 3 0.010 0.100 8.00 0.0000 
2 0 0 3 0.010 0.100 8.00 0.0000 
2 0 0 3 0.010 0.100 8.00 0.0000 
2 0 0 3 0.010 0.100 8.00 0.0000 
2 0 0 3 0.010 0.100 8.00 0.0000 
2 0 0 3 0.010 0.100 8.00 0.0000 
2 0 0 3 0.010 0.100 8.00 0.0000 
2 0 0 3 0.010 0.100 8.00 0.0000 
2 0 0 3 0.010 0.100 8.00 0.0000 
2 0 0 3 0.010 0.100 8.00 0.0000 
2 0 0 3 0.010 0.100 8.00 0.0000 
2 0 0 3 0.010 0.100 8.00 0.0000 
2 0 0 3 0.010 0.100 8.00 0.0000 
2 0 0 3 0.010 0.100 8.00 0.0000 
2 0 0 3 0.010 0.100 8.00 0.0000 
2 0 0 3 0.010 0.100 8.00 0.0000 
2 0 0 3 0.010 0.100 8.00 0.0000 
2 0 0 3 0.010 0.100 8.00 0.0000 
2 0 0 3 0.010 0.100 8.00 0.0000 
2 0 0 3 0.010 0.100 8.00 0.0000 
2 0 0 3 0.010 0.100 8.00 0.0000 
2 0 0 3 0.010 0.100 8.00 0.0000 
2 0 0 3 0.010 0.100 8.00 0.0000 
2 0 0 3 0.010 0.100 8.00 0.0000 
2 0 0 3 0.010 0.100 8.00 0.0000 
2 0 0 3 0.010 0.100 8.00 0.0000 
2 0 0 3 0.010 0.100 8.00 0.0000 
2 0 0 3 0.010 0.100 8.00 0.0000 
2 0 0 3 0.010 0.100 8.00 0.0000 
2 0 0 3 0.010 0.100 8.00 0.0000 
2 0 0 3 0.010 0.100 8.00 0.0000 
2 0 0 3 0.010 0.100 8.00 0.0000 
2 0 0 3 0.010 0.100 8.00 0.0000 
2 0 0 3 0.010 0.100 8.00 0.0000 
2 0 0 3 0.010 0.100 8.00 0.0000 
2 0 0 3 0.010 0.100 8.00 0.0000 
2 0 0 3 0.010 0.100 8.00 0.0000 
2 0 0 3 0.010 0.100 8.00 0.0000 
2 0 0 3 0.010 0.100 8.00 0.0000 
2 0 0 3 0.010 0.100 8.00 0.0000 
2 0 0 3 0.010 0.100 8.00 0.0000 
2 0 0 3 0.010 0.100 8.00 0.0000 
2 0 0 3 0.010 0.100 8.00 0.0000 
2 0 0 3 0.010 0.100 8.00 0.0000 
2 0 0 3 0.010 0.100 8.00 0.0000 
2 0 0 3 0.010 0.100 8.00 0.0000 
2 0 0 3 0.010 0.100 8.00 0.0000 
2 0 0 3 0.010 0.100 8.00 0.0000 
2 0 0 3 0.010 0.100 8.00 0.0000 
2 0 0 3 0.010 0.100 8.00 0.0000 
2 0 0 3 0.010 0.100 8.00 0.0000 
2 0 0 3 0.010 0.100 8.00 0.0000 
2 0 0 3 0.010 0.100 8.00 0.0000 
2 0 0 3 0.010 0.100 8.00 0.0000 
2 0 0 3 0.010 0.100 8.00 0.0000 
2 0 0 3 0.010 0.100 8.00 0.0000 
2 0 0 3 0.010 0.100 8.00 0.0000 
2 0 0 3 0.010 0.100 8.00 0.0000 
2 0 0 3 0.010 0.100 8.00 0.0000 
2 0 0 3 0.010 0.100 8.00 0.0000 
2 0 0 3 0.010 0.100 8.00 0.0000 
2 0 0 3 0.010 0.100 8.00 0.0000 
2 0 0 3 0.010 0.100 8.00 0.0000 
2 0 0 3 0.010 0.100 8.00 0.0000 
2 0 0 3 0.010 0.100 8.00 0.0000 
2 0 0 3 0.010 0.100 8.00 0.0000 
2 0 0 3 0.010 0.100 8.00 0.0000 
2 0 0 3 0.010 0.100 8.00 0.0000 
2 0 0 3 0.010 0.100 8.00 0.0000 
2 0 0 3 0.010 0.100 8.00 0.0000 
2 0 0 3 0.010 0.100 8.00 0.0000 
2 0 0 3 0.010 0.100 8.00 0.0000 
2 0 0 3 0.010 0.100 8.00 0.0000 
...
];

%% branch data
mpc.branch = [
1 2 2.000000 1.000000 1.20000 230.00 230.00 230.00 1.00000  0.000 1 0.00 0.00 0.00 -240.00   0.00 -240.00
2 3 2.000000 1.000000 1.20000 230.00 230.00 230.00 2.00000 60.000 1 0.00 0.00 0.00 -140.00 200.00 -240.00
2 4 2.000000 1.000000 1.20000 230.00 230.00 230.00 1.00000  0.000 1 0.00 0.00 0.00 -240.00   0.00 -240.00
4 5 2.000000 1.000000 1.20000 230.00 230.00 230.00 1.00000  0.000 1 0.00 0.00 0.00 -240.00   0.00 -240.00
5 6 2.000000 1.000000 1.20000 230.00 230.00 230.00 1.00000  0.000 1 0.00 0.00 0.00 -240.00   0.00 -240.00
6 7 2.000000 1.000000 1.20000 230.00 230.00 230.00 2.00000 60.000 1 0.00 0.00 0.00 -140.00 200.00 -240.00
6 8 2.000000 1.000000 1.20000 230.00 230.00 230.00 1.00000  0.000 1 0.00 0.00 0.00 -240.00   0.00 -240.00
8 9 2.000000 1.000000 1.20000 230.00 230.00 230.00 1.00000  0.000 1 0.00 0.00 0.00 -240.00   0.00 -240.00
9 10 2.000000 1.000000 1.20000 230.00 230.00 230.00 1.00000  0.000 1 0.00 0.00 0.00 -240.00   0.00 -240.00
10 11 2.000000 1.000000 1.20000 230.00 230.00 230.00 2.00000 60.000 1 0.00 0.00 0.00 -140.00 200.00 -240.00
10 12 2.000000 1.000000 1.20000 230.00 230.00 230.00 1.00000  0.000 1 0.00 0.00 0.00 -240.00   0.00 -240.00
12 13 2.000000 1.000000 1.20000 230.00 230.00 230.00 1.00000  0.000 1 0.00 0.00 0.00 -240.00   0.00 -240.00
13 14 2.000000 1.000000 1.20000 230.00 230.00 230.00 1.00000  0.000 1 0.00 0.00 0.00 -240.00   0.00 -240.00
14 15 2.000000 1.000000 1.20000 230.00 230.00 230.00 2.00000 60.000 1 0.00 0.00 0.00 -140.00 200.00 -240.00
14 16 2.000000 1.000000 1.20000 230.00 230.00 230.00 1.00000  0.000 1 0.00 0.00 0.00 -240.00   0.00 -240.00
16 17 2.000000 1.000000 1.20000 230.00 230.00 230.00 1.00000  0.000 1 0.00 0.00 0.00 -240.00   0.00 -240.00
17 18 2.000000 1.000000 1.20000 230.00 230.00 230.00 1.00000  0.000 1 0.00 0.00 0.00 -240.00   0.00 -240.00
18 19 2.000000 1.000000 1.20000 230.00 230.00 230.00 2.00000 60.000 1 0.00 0.00 0.00 -140.00 200.00 -240.00
18 20 2.000000 1.000000 1.20000 230.00 230.00 230.00 1.00000  0.000 1 0.00 0.00 0.00 -240.00   0.00 -240.00
20 21 2.000000 1.000000 1.20000 230.00 230.00 230.00 1.00000  0.000 1 0.00 0.00 0.00 -240.00   0.00 -240.00
21 22 2.000000 1.000000 1.20000 230.00 230.00 230.00 1.00000  0.000 1 0.00 0.00 0.00 -240.00   0.00 -240.00
22 23 2.000000 1.000000 1.20000 230.00 230.00 230.00 2.00000 60.000 1 0.00 0.00 0.00 -140.00 200.00 -240.00
22 24 2.000000 1.000000 1.20000 230.00 230.00 230.00 1.00000  0.000 1 0.00 0.00 0.00 -240.00   0.00 -240.00
24 25 2.000000 1.000000 1.20000 230.00 230.00 230.00 1.00000  0.000 1 0.00 0.00 0.00 -240.00   0.00 -240.00
25 26 2.000000 1.000000 1.20000 230.00 230.00 230.00 1.00000  0.000 1 0.00 0.00 0.00 -240.00   0.00 -240.00
26 27 2.000000 1.000000 1.20000 230.00 230.00 230.00 2.00000 60.000 1 0.00 0.00 0.00 -140.00 200.00 -240.00
26 28 2.000000 1.000000 1.20000 230.00 230.00 230.00 1.00000  0.000 1 0.00 0.00 0.00 -240.00   0.00 -240.00
28 29 2.000000 1.000000 1.20000 230.00 230.00 230.00 1.00000  0.000 1 0.00 0.00 0.00 -240.00   0.00 -240.00
29 30 2.000000 1.000000 1.20000 230.00 230.00 230.00 1.00000  0.000 1 0.00 0.00 0.00 -240.00   0.00 -240.00
30 31 2.000000 1.000000 1.20000 230.00 230.00 230.00 2.00000 60.000 1 0.00 0.00 0.00 -140.00 200.00 -240.00
30 32 2.000000 1.000000 1.20000 230.00 230.00 230.00 1.00000  0.000 1 0.00 0.00 0.00 -240.00   0.00 -240.00
32 33 2.000000 1.000000 1.20000 230.00 230.00 230.00 1.00000  0.000 1 0.00 0.00 0.00 -240.00   0.00 -240.00
33 34 2.000000 1.000000 1.20000 230.00 230.00 230.00 1.00000  0.000 1 0.00 0.00 0.00 -240.00   0.00 -240.00
34 35 2.000000 1.000000 1.20000 230.00 230.00 230.00 2.00000 60.000 1 0.00 0.00 0.00 -140.00 200.00 -240.00
34 36 2.000000 1.000000 1.20000 230.00 230.00 230.00 1.00000  0.000 1 0.00 0.00 0.00 -240.00   0.00 -240.00
36 37 2.000000 1.000000 1.20000 230.00 230.00 230.00 1.00000  0.000 1 0.00 0.00 0.00 -240.00   0.00 -240.00
37 38 2.000000 1.000000 1.20000 230.00 230.00 230.00 1.00000  0.000 1 0.00 0.00 0.00 -240.00   0.00 -240.00
38 39 2.000000 1.000000 1.20000 230.00 230.00 230.00 2.00000 60.000 1 0.00 0.00 0.00 -140.00 200.00 -240.00
38 40 2.000000 1.000000 1.20000 230.00 230.00 230.00 1.00000  0.000 1 0.00 0.00 0.00 -240.00   0.00 -240.00
40 41 2.000000 1.000000 1.20000 230.00 230.00 230.00 1.00000  0.000 1 0.00 0.00 0.00 -240.00   0.00 -240.00
41 42 2.000000 1.000000 1.20000 230.00 230.00 230.00 1.00000  0.000 1 0.00 0.00 0.00 -240.00   0.00 -240.00
42 43 2.000000 1.000000 1.20000 230.00 230.00 230.00 2.00000 60.000 1 0.00 0.00 0.00 -140.00 200.00 -240.00
42 44 2.000000 1.000000 1.20000 230.00 230.00 230.00 1.00000  0.000 1 0.00 0.00 0.00 -240.00   0.00 -240.00
44 45 2.000000 1.000000 1.20000 230.00 230.00 230.00 1.00000  0.000 1 0.00 0.00 0.00 -240.00   0.00 -240.00
45 46 2.000000 1.000000 1.20000 230.00 230.00 230.00 1.00000  0.000 1 0.00 0.00 0.00 -240.00   0.00 -240.00
46 47 2.000000 1.000000 1.20000 230.00 230.00 230.00 2.00000 60.000 1 0.00 0.00 0.00 -140.00 200.00 -240.00
46 48 2.000000 1.000000 1.20000 230.00 230.00 230.00 1.00000  0.000 1 0.00 0.00 0.00 -240.00   0.00 -240.00
48 49 2.000000 1.000000 1.20000 230.00 230.00 230.00 1.00000  0.000 1 0.00 0.00 0.00 -240.00   0.00 -240.00
49 50 2.000000 1.000000 1.20000 230.00 230.00 230.00 1.00000  0.000 1 0.00 0.00 0.00 -240.00   0.00 -240.00
50 51 2.000000 1.000000 1.20000 230.00 230.00 230.00 2.00000 60.000 1 0.00 0.00 0.00 -140.00 200.00 -240.00
50 52 2.000000 1.000000 1.20000 230.00 230.00 230.00 1.00000  0.000 1 0.00 0.00 0.00 -240.00   0.00 -240.00
52 53 2.000000 1.000000 1.20000 230.00 230.00 230.00 1.00000  0.000 1 0.00 0.00 0.00 -240.00   0.00 -240.00
53 54 2.000000 1.000000 1.20000 230.00 230.00 230.00 1.00000  0.000 1 0.00 0.00 0.00 -240.00   0.00 -240.00
54 55 2.000000 1.000000 1.20000 230.00 230.00 230.00 2.00000 60.000 1 0.00 0.00 0.00 -140.00 200.00 -240.00
54 56 2.000000 1.000000 1.20000 230.00 230.00 230.00 1.00000  0.000 1 0.00 0.00 0.00 -240.00   0.00 -240.00
56 57 2.000000 1.000000 1.20000 230.00 230.00 230.00 1.00000  0.000 1 0.00 0.00 0.00 -240.00   0.00 -240.00
57 58 2.000000 1.000000 1.20000 230.00 230.00 230.00 1.00000  0.000 1 0.00 0.00 0.00 -240.00   0.00 -240.00
58 59 2.000000 1.000000 1.20000 230.00 230.00 230.00 2.00000 60.000 1 0.00 0.00 0.00 -140.00 200.00 -240.00
58 60 2.000000 1.000000 1.20000 230.00 230.00 230.00 1.00000  0.000 1 0.00 0.00 0.00 -240.00   0.00 -240.00
60 61 2.000000 1.000000 1.20000 230.00 230.00 230.00 1.00000  0.000 1 0.00 0.00 0.00 -240.00   0.00 -240.00
61 62 2.000000 1.000000 1.20000 230.00 230.00 230.00 1.00000  0.000 1 0.00 0.00 0.00 -240.00   0.00 -240.00
62 63 2.000000 1.000000 1.20000 230.00 230.00 230.00 2.00000 60.000 1 0.00 0.00 0.00 -140.00 200.00 -240.00
62 64 2.000000 1.000000 1.20000 230.00 230.00 230.00 1.00000  0.000 1 0.00 0.00 0.00 -240.00   0.00 -240.00
64 65 2.000000 1.000000 1.20000 230.00 230.00 230.00 1.00000  0.000 1 0.00 0.00 0.00 -240.00   0.00 -240.00
65 66 2.000000 1.000000 1.20000 230.00 230.00 230.00 1.00000  0.000 1 0.00 0.00 0.00 -240.00   0.00 -240.00
66 67 2.000000 1.000000 1.20000 230.00 230.00 230.00 2.00000 60.000 1 0.00 0.00 0.00 -140.00 200.00 -240.00
66 68 2.000000 1.000000 1.20000 230.00 230.00 230.00 1.00000  0.000 1 0.00 0.00 0.00 -240.00   0.00 -240.00
68 69 2.000000 1.000000 1.20000 230.00 230.00 230.00 1.00000  0.000 1 0.00 0.00 0.00 -240.00   0.00 -240.00
69 70 2.000000 1.000000 1.20000 230.00 230.00 230.00 1.00000  0.000 1 0.00 0.00 0.00 -240.00   0.00 -240.00
70 71 2.000000 1.000000 1.20000 230.00 230.00 230.00 2.00000 60.000 1 0.00 0.00 0.00 -140.00 200.00 -240.00
70 72 2.000000 1.000000 1.20000 230.00 230.00 230.00 1.00000  0.000 1 0.00 0.00 0.00 -240.00   0.00 -240.00
72 73 2.000000 1.000000 1.20000 230.00 230.00 230.00 1.00000  0.000 1 0.00 0.00 0.00 -240.00   0.00 -240.00
73 74 2.000000 1.000000 1.20000 230.00 230.00 230.00 1.00000  0.000 1 0.00 0.00 0.00 -240.00   0.00 -240.00
74 75 2.000000 1.000000 1.20000 230.00 230.00 230.00 2.00000 60.000 1 0.00 0.00 0.00 -140.00 200.00 -240.00
74 76 2.000000 1.000000 1.20000 230.00 230.00 230.00 1.00000  0.000 1 0.00 0.00 0.00 -240.00   0.00 -240.00
76 77 2.000000 1.000000 1.20000 230.00 230.00 230.00 1.00000  0.000 1 0.00 0.00 0.00 -240.00   0.00 -240.00
77 78 2.000000 1.000000 1.20000 230.00 230.00 230.00 1.00000  0.000 1 0.00 0.00 0.00 -240.00   0.00 -240.00
78 79 2.000000 1.000000 1.20000 230.00 230.00 230.00 2.00000 60.000 1 0.00 0.00 0.00 -140.00 200.00 -240.00
78 80 2.000000 1.000000 1.20000 230.00 230.00 230.00 1.00000  0.000 1 0.00 0.00 0.00 -240.00   0.00 -240.00
80 81 2.000000 1.000000 1.20000 230.00 230.00 230.00 1.00000  0.000 1 0.00 0.00 0.00 -240.00   0.00 -240.00
81 82 2.000000 1.000000 1.20000 230.00 230.00 230.00 1.00000  0.000 1 0.00 0.00 0.00 -240.00   0.00 -240.00
82 83 2.000000 1.000000 1.20000 230.00 230.00 230.00 2.00000 60.000 1 0.00 0.00 0.00 -140.00 200.00 -240.00
82 84 2.000000 1.000000 1.20000 230.00 230.00 230.00 1.00000  0.000 1 0.00 0.00 0.00 -240.00   0.00 -240.00
84 85 2.000000 1.000000 1.20000 230.00 230.00 230.00 1.00000  0.000 1 0.00 0.00 0.00 -240.00   0.00 -240.00
85 86 2.000000 1.000000 1.20000 230.00 230.00 230.00 1.00000  0.000 1 0.00 0.00 0.00 -240.00   0.00 -240.00
86 87 2.000000 1.000000 1.20000 230.00 230.00 230.00 2.00000 60.000 1 0.00 0.00 0.00 -140.00 200.00 -240.00
86 88 2.000000 1.000000 1.20000 230.00 230.00 230.00 1.00000  0.000 1 0.00 0.00 0.00 -240.00   0.00 -240.00
88 89 2.000000 1.000000 1.20000 230.00 230.00 230.00 1.00000  0.000 1 0.00 0.00 0.00 -240.00   0.00 -240.00
89 90 2.000000 1.000000 1.20000 230.00 230.00 230.00 1.00000  0.000 1 0.00 0.00 0.00 -240.00   0.00 -240.00
90 91 2.000000 1.000000 1.20000 230.00 230.00 230.00 2.00000 60.000 1 0.00 0.00 0.00 -140.00 200.00 -240.00
90 92 2.000000 1.000000 1.20000 230.00 230.00 230.00 1.00000  0.000 1 0.00 0.00 0.00 -240.00   0.00 -240.00
92 93 2.000000 1.000000 1.20000 230.00 230.00 230.00 1.00000  0.000 1 0.00 0.00 0.00 -240.00   0.00 -240.00
93 94 2.000000 1.000000 1.20000 230.00 230.00 230.00 1.00000  0.000 1 0.00 0.00 0.00 -240.00   0.00 -240.00
94 95 2.000000 1.000000 1.20000 230.00 230.00 230.00 2.00000 60.000 1 0.00 0.00 0.00 -140.00 200.00 -240.00
94 96 2.000000 1.000000 1.20000 230.00 230.00 230.00 1.00000  0.000 1 0.00 0.00 0.00 -240.00   0.00 -240.00
96 97 2.000000 1.000000 1.20000 230.00 230.00 230.00 1.00000  0.000 1 0.00 0.00 0.00 -240.00   0.00 -240.00
97 98 2.000000 1.000000 1.20000 230.00 230.00 230.00 1.00000  0.000 1 0.00 0.00 0.00 -240.00   0.00 -240.00
98 99 2.000000 1.000000 1.20000 230.00 230.00 230.00 2.00000 60.000 1 0.00 0.00 0.00 -140.00 200.00 -240.00
98 100 2.000000 1.000000 1.20000 230.00 230.00 230.00 1.00000  0.000 1 0.00 0.00 0.00 -240.00   0.00 -240.00
100 101 2.000000 1.000000 1.20000 230.00 230.00 230.00 1.00000  0.000 1 0.00 0.00 0.00 -240.00   0.00 -240.00
101 102 2.000000 1.000000 1.20000 230.00 230.00 230.00 1.00000  0.000 1 0.00 0.00 0.00 -240.00   0.00 -240.00
102 103 2.000000 1.000000 1.20000 230.00 230.00 230.00 2.00000 60.000 1 0.00 0.00 0.00 -140.00 200.00 -240.00
102 104 2.000000 1.000000 1.20000 230.00 230.00 230.00 1.00000  0.000 1 0.00 0.00 0.00 -240.00   0.00 -240.00
104 105 2.000000 1.000000 1.20000 230.00 230.00 230.00 1.00000  0.000 1 0.00 0.00 0.00 -240.00   0.00 -240.00
105 106 2.000000 1.000000 1.20000 230.00 230.00 230.00 1.00000  0.000 1 0.00 0.00 0.00 -240.00   0.00 -240.00
106 107 2.000000 1.000000 1.20000 230.00 230.00 230.00 2.00000 60.000 1 0.00 0.00 0.00 -140.00 200.00 -240.00
106 108 2.000000 1.000000 1.20000 230.00 230.00 230.00 1.00000  0.000 1 0.00 0.00 0.00 -240.00   0.00 -240.00
108 109 2.000000 1.000000 1.20000 230.00 230.00 230.00 1.00000  0.000 1 0.00 0.00 0.00 -240.00   0.00 -240.00
109 110 2.000000 1.000000 1.20000 230.00 230.00 230.00 1.00000  0.000 1 0.00 0.00 0.00 -240.00   0.00 -240.00
110 111 2.000000 1.000000 1.20000 230.00 230.00 230.00 2.00000 60.000 1 0.00 0.00 0.00 -140.00 200.00 -240.00
110 112 2.000000 1.000000 1.20000 230.00 230.00 230.00 1.00000  0.000 1 0.00 0.00 0.00 -240.00   0.00 -240.00
112 113 2.000000 1.000000 1.20000 230.00 230.00 230.00 1.00000  0.000 1 0.00 0.00 0.00 -240.00   0.00 -240.00
113 114 2.000000 1.000000 1.20000 230.00 230.00 230.00 1.00000  0.000 1 0.00 0.00 0.00 -240.00   0.00 -240.00
114 115 2.000000 1.000000 1.20000 230.00 230.00 230.00 2.00000 60.000 1 0.00 0.00 0.00 -140.00 200.00 -240.00
114 116 2.000000 1.000000 1.20000 230.00 230.00 230.00 1.00000  0.000 1 0.00 0.00 0.00 -240.00   0.00 -240.00
116 117 2.000000 1.000000 1.20000 230.00 230.00 230.00 1.00000  0.000 1 0.00 0.00 0.00 -240.00   0.00 -240.00
117 118 2.000000 1.000000 1.20000 230.00 230.00 230.00 1.00000  0.000 1 0.00 0.00 0.00 -240.00   0.00 -240.00
118 119 2.000000 1.000000 1.20000 230.00 230.00 230.00 2.00000 60.000 1 0.00 0.00 0.00 -140.00 200.00 -240.00
118 120 2.000000 1.000000 1.20000 230.00 230.00 230.00 1.00000  0.000 1 0.00 0.00 0.00 -240.00   0.00 -240.00
120 121 2.000000 1.000000 1.20000 230.00 230.00 230.00 1.00000  0.000 1 0.00 0.00 0.00 -240.00   0.00 -240.00
121 122 2.000000 1.000000 1.20000 230.00 230.00 230.00 1.00000  0.000 1 0.00 0.00 0.00 -240.00   0.00 -240.00
122 123 2.000000 1.000000 1.20000 230.00 230.00 230.00 2.00000 60.000 1 0.00 0.00 0.00 -140.00 200.00 -240.00
122 124 2.000000 1.000000 1.20000 230.00 230.00 230.00 1.00000  0.000 1 0.00 0.00 0.00 -240.00   0.00 -240.00
124 125 2.000000 1.000000 1.20000 230.00 230.00 230.00 1.00000  0.000 1 0.00 0.00 0.00 -240.00   0.00 -240.00
125 126 2.000000 1.000000 1.20000 230.00 230.00 230.00 1.00000  0.000 1 0.00 0.00 0.00 -240.00   0.00 -240.00
126 127 2.000000 1.000000 1.20000 230.00 230.00 230.00 2.00000 60.000 1 0.00 0.00 0.00 -140.00 200.00 -240.00
126 128 2.000000 1.000000 1.20000 230.00 230.00 230.00 1.00000  0.000 1 0.00 0.00 0.00 -240.00   0.00 -240.00
128 129 2.000000 1.000000 1.20000 230.00 230.00 230.00 1.00000  0.000 1 0.00 0.00 0.00 -240.00   0.00 -240.00
129 130 2.000000 1.000000 1.20000 230.00 230.00 230.00 1.00000  0.000 1 0.00 0.00 0.00 -240.00   0.00 -240.00
130 131 2.000000 1.000000 1.20000 230.00 230.00 230.00 2.00000 60.000 1 0.00 0.00 0.00 -140.00 200.00 -240.00
130 132 2.000000 1.000000 1.20000 230.00 230.00 230.00 1.00000  0.000 1 0.00 0.00 0.00 -240.00   0.00 -240.00
132 133 2.000000 1.000000 1.20000 230.00 230.00 230.00 1.00000  0.000 1 0.00 0.00 0.00 -240.00   0.00 -240.00
133 134 2.000000 1.000000 1.20000 230.00 230.00 230.00 1.00000  0.000 1 0.00 0.00 0.00 -240.00   0.00 -240.00
134 135 2.000000 1.000000 1.20000 230.00 230.00 230.00 2.00000 60.000 1 0.00 0.00 0.00 -140.00 200.00 -240.00
134 136 2.000000 1.000000 1.20000 230.00 230.00 230.00 1.00000  0.000 1 0.00 0.00 0.00 -240.00   0.00 -240.00
136 137 2.000000 1.000000 1.20000 230.00 230.00 230.00 1.00000  0.000 1 0.00 0.00 0.00 -240.00   0.00 -240.00
137 138 2.000000 1.000000 1.20000 230.00 230.00 230.00 1.00000  0.000 1 0.00 0.00 0.00 -240.00   0.00 -240.00
138 139 2.000000 1.000000 1.20000 230.00 230.00 230.00 2.00000 60.000 1 0.00 0.00 0.00 -140.00 200.00 -240.00
138 140 2.000000 1.000000 1.20000 230.00 230.00 230.00 1.00000  0.000 1 0.00 0.00 0.00 -240.00   0.00 -240.00
140 141 2.000000 1.000000 1.20000 230.00 230.00 230.00 1.00000  0.000 1 0.00 0.00 0.00 -240.00   0.00 -240.00
141 142 2.000000 1.000000 1.20000 230.00 230.00 230.00 1.00000  0.000 1 0.00 0.00 0.00 -240.00   0.00 -240.00
142 143 2.000000 1.000000 1.20000 230.00 230.00 230.00 2.00000 60.000 1 0.00 0.00 0.00 -140.00 200.00 -240.00
142 144 2.000000 1.000000 1.20000 230.00 230.00 230.00 1.00000  0.000 1 0.00 0.00 0.00 -240.00   0.00 -240.00
144 145 2.000000 1.000000 1.20000 230.00 230.00 230.00 1.00000  0.000 1 0.00 0.00 0.00 -240.00   0.00 -240.00
145 146 2.000000 1.000000 1.20000 230.00 230.00 230.00 1.00000  0.000 1 0.00 0.00 0.00 -240.00   0.00 -240.00
146 147 2.000000 1.000000 1.20000 230.00 230.00 230.00 2.00000 60.000 1 0.00 0.00 0.00 -140.00 200.00 -240.00
146 148 2.000000 1.000000 1.20000 230.00 230.00 230.00 1.00000  0.000 1 0.00 0.00 0.00 -240.00   0.00 -240.00
148 149 2.000000 1.000000 1.20000 230.00 230.00 230.00 1.00000  0.000 1 0.00 0.00 0.00 -240.00   0.00 -240.00
149 150 2.000000 1.000000 1.20000 230.00 230.00 230.00 1.00000  0.000 1 0.00 0.00 0.00 -240.00   0.00 -240.00
150 151 2.000000 1.000000 1.20000 230.00 230.00 230.00 2.00000 60.000 1 0.00 0.00 0.00 -140.00 200.00 -240.00
150 152 2.000000 1.000000 1.20000 230.00 230.00 230.00 1.00000  0.000 1 0.00 0.00 0.00 -240.00   0.00 -240.00
152 153 2.000000 1.000000 1.20000 230.00 230.00 230.00 1.00000  0.000 1 0.00 0.00 0.00 -240.00   0.00 -240.00
153 154 2.000000 1.000000 1.20000 230.00 230.00 230.00 1.00000  0.000 1 0.00 0.00 0.00 -240.00   0.00 -240.00
154 155 2.000000 1.000000 1.20000 230.00 230.00 230.00 2.00000 60.000 1 0.00 0.00 0.00 -140.00 200.00 -240.00
154 156 2.000000 1.000000 1.20000 230.00 230.00 230.00 1.00000  0.000 1 0.00 0.00 0.00 -240.00   0.00 -240.00
156 157 2.000000 1.000000 1.20000 230.00 230.00 230.00 1.00000  0.000 1 0.00 0.00 0.00 -240.00   0.00 -240.00
157 158 2.000000 1.000000 1.20000 230.00 230.00 230.00 1.00000  0.000 1 0.00 0.00 0.00 -240.00   0.00 -240.00
158 159 2.000000 1.000000 1.20000 230.00 230.00 230.00 2.00000 60.000 1 0.00 0.00 0.00 -140.00 200.00 -240.00
158 160 2.000000 1.000000 1.20000 230.00 230.00 230.00 1.00000  0.000 1 0.00 0.00 0.00 -240.00   0.00 -240.00
160 161 2.000000 1.000000 1.20000 230.00 230.00 230.00 1.00000  0.000 1 0.00 0.00 0.00 -240.00   0.00 -240.00
161 162 2.000000 1.000000 1.20000 230.00 230.00 230.00 1.00000  0.000 1 0.00 0.00 0.00 -240.00   0.00 -240.00
162 163 2.000000 1.000000 1.20000 230.00 230.00 230.00 2.00000 60.000 1 0.00 0.00 0.00 -140.00 200.00 -240.00
162 164 2.000000 1.000000 1.20000 230.00 230.00 230.00 1.00000  0.000 1 0.00 0.00 0.00 -240.00   0.00 -240.00
164 165 2.000000 1.000000 1.20000 230.00 230.00 230.00 1.00000  0.000 1 0.00 0.00 0.00 -240.00   0.00 -240.00
165 166 2.000000 1.000000 1.20000 230.00 230.00 230.00 1.00000  0.000 1 0.00 0.00 0.00 -240.00   0.00 -240.00
166 167 2.000000 1.000000 1.20000 230.00 230.00 230.00 2.00000 60.000 1 0.00 0.00 0.00 -140.00 200.00 -240.00
166 168 2.000000 1.000000 1.20000 230.00 230.00 230.00 1.00000  0.000 1 0.00 0.00 0.00 -240.00   0.00 -240.00
168 169 2.000000 1.000000 1.20000 230.00 230.00 230.00 1.00000  0.000 1 0.00 0.00 0.00 -240.00   0.00 -240.00
169 170 2.000000 1.000000 1.20000 230.00 230.00 230.00 1.00000  0.000 1 0.00 0.00 0.00 -240.00   0.00 -240.00
170 171 2.000000 1.000000 1.20000 230.00 230.00 230.00 2.00000 60.000 1 0.00 0.00 0.00 -140.00 200.00 -240.00
170 172 2.000000 1.000000 1.20000 230.00 230.00 230.00 1.00000  0.000 1 0.00 0.00 0.00 -240.00   0.00 -240.00
172 173 2.000000 1.000000 1.20000 230.00 230.00 230.00 1.00000  0.000 1 0.00 0.00 0.00 -240.00   0.00 -240.00
...